testData/IEEE300/testCases/IEEE300Bus_modified_noHVDC_v2_scalepercent_15.raw
0,   100.00, 30, 0, 1,  60.00     / PSS(R)E 30 RAW created by rawd30  MON, NOV 23 2020  14:24
 00/00/01                      100.0  0    0
 0
     1,'1           ', 115.0000,1,     0.000,     0.000,   1,   1,1.02233,   9.5930,   1
     2,'2           ', 115.0000,1,     0.000,     0.000,   1,   1,1.03231,  11.5826,   1
     3,'3           ', 230.0000,1,     0.000,     0.000,   1,   1,0.99021,  10.3401,   1
     4,'4           ', 345.0000,1,     0.000,     0.000,   1,   1,1.02177,   8.0546,   1
     5,'5           ', 115.0000,1,     0.000,     0.000,   1,   1,1.01160,   8.1085,   1
     6,'6           ', 115.0000,1,     0.000,     0.000,   1,   1,1.02679,  10.7245,   1
     7,'7           ', 230.0000,1,     0.000,     0.000,   1,   1,0.98686,   9.8151,   1
     8,'8           ', 115.0000,1,     0.000,     0.000,   1,   1,1.01529,   5.2394,   1
     9,'9           ', 115.0000,1,     0.000,     0.000,   1,   1,0.99722,   5.9293,   1
    10,'10          ', 230.0000,1,     0.000,     0.000,   1,   1,1.02050,   4.1844,   1
    11,'11          ', 115.0000,1,     0.000,     0.000,   1,   1,1.00359,   5.4311,   1
    12,'12          ', 230.0000,1,     0.000,     0.000,   1,   1,0.99250,   8.6784,   1
    13,'13          ', 115.0000,1,     0.000,     0.000,   1,   1,0.99555,   1.9337,   1
    14,'14          ', 115.0000,1,     0.000,     0.000,   1,   1,0.98768,  -3.2034,   1
    15,'15          ', 115.0000,1,     0.000,     0.000,   1,   1,1.02259,  -7.6913,   1
    16,'16          ', 345.0000,1,     0.000,     0.000,   1,   1,1.01701,  -0.6839,   1
    17,'17          ', 115.0000,1,     0.000,     0.000,   1,   1,1.05405, -13.1014,   1
    19,'19          ', 230.0000,1,     0.000,     0.000,   1,   1,0.97521,   3.7998,   1
    20,'20          ', 115.0000,1,     0.000,     0.000,   1,   1,1.00099,  -0.2748,   1
    21,'21          ', 230.0000,1,     0.000,     0.000,   1,   1,0.97057,   4.4573,   1
    22,'22          ', 115.0000,1,     0.000,     0.000,   1,   1,0.99307,   0.3368,   1
    23,'23          ', 115.0000,1,     0.000,     0.000,   1,   1,1.04883,   7.3085,   1
    24,'24          ', 230.0000,1,     0.000,     0.000,   1,   1,1.00290,   9.6741,   1
    25,'25          ', 115.0000,1,     0.000,     0.000,   1,   1,1.01740,   4.4198,   1
    26,'26          ', 115.0000,1,     0.000,     0.000,   1,   1,0.98877,   0.7136,   1
    27,'27          ', 115.0000,1,     0.000,     0.000,   1,   1,0.96381,  -3.0226,   1
    33,'33          ', 115.0000,1,     0.000,     0.000,   1,   1,1.01029, -12.1244,   1
    34,'34          ', 345.0000,1,     0.000,     0.000,   1,   1,1.02640,  -7.0700,   1
    35,'35          ', 115.0000,1,     0.000,     0.000,   1,   1,0.97288, -27.5432,   1
    36,'36          ', 230.0000,1,     0.000,     0.000,   1,   1,0.99163, -23.8410,   1
    37,'37          ', 115.0000,1,     0.000,     0.000,   1,   1,1.00723, -11.3449,   1
    38,'38          ', 115.0000,1,     0.000,     0.000,   1,   1,1.00559, -12.7878,   1
    39,'39          ', 345.0000,1,     0.000,     0.000,   1,   1,1.04098,  -4.5160,   1
    40,'40          ', 115.0000,1,     0.000,     0.000,   1,   1,1.00807, -13.0411,   1
    41,'41          ', 115.0000,1,     0.000,     0.000,   1,   1,1.01605, -10.3077,   1
    42,'42          ', 345.0000,1,     0.000,     0.000,   1,   1,1.03025,  -6.4579,   1
    43,'43          ', 115.0000,1,     0.000,     0.000,   1,   1,0.98314, -17.7380,   1
    44,'44          ', 115.0000,1,     0.000,     0.000,   1,   1,0.99278, -18.4467,   1
    45,'45          ', 230.0000,1,     0.000,     0.000,   1,   1,1.00583, -15.2041,   1
    46,'46          ', 345.0000,1,     0.000,     0.000,   1,   1,1.01811, -11.4694,   1
    47,'47          ', 115.0000,1,     0.000,     0.000,   1,   1,0.95949, -24.9595,   1
    48,'48          ', 115.0000,1,     0.000,     0.000,   1,   1,0.98944, -16.8248,   1
    49,'49          ', 115.0000,1,     0.000,     0.000,   1,   1,1.04407,  -2.6539,   1
    51,'51          ', 115.0000,1,     0.000,     0.000,   1,   1,1.01420,  -8.1340,   1
    52,'52          ', 115.0000,1,     0.000,     0.000,   1,   1,0.98209, -12.4855,   1
    53,'53          ', 115.0000,1,     0.000,     0.000,   1,   1,0.97771, -18.7572,   1
    54,'54          ', 115.0000,1,     0.000,     0.000,   1,   1,0.98894, -17.2366,   1
    55,'55          ', 115.0000,1,     0.000,     0.000,   1,   1,1.00298, -12.8891,   1
    57,'57          ', 115.0000,1,     0.000,     0.000,   1,   1,1.02774,  -8.6423,   1
    58,'58          ', 115.0000,1,     0.000,     0.000,   1,   1,0.98146,  -6.6829,   1
    59,'59          ', 115.0000,1,     0.000,     0.000,   1,   1,0.96745,  -5.9676,   1
    60,'60          ', 230.0000,1,     0.000,     0.000,   1,   1,1.01264,  -9.9390,   1
    61,'61          ', 115.0000,1,     0.000,     0.000,   1,   1,0.98193,  -3.8810,   1
    62,'62          ', 230.0000,1,     0.000,     0.000,   1,   1,1.01040,  -1.4173,   1
    63,'63          ', 115.0000,1,     0.000,     0.000,   1,   1,0.95829, -20.7613,   1
    64,'64          ', 230.0000,1,     0.000,     0.000,   1,   1,0.94218, -15.3833,   1
    69,'69          ', 115.0000,1,     0.000,     0.000,   1,   1,0.94985, -27.3039,   1
    70,'70          ', 115.0000,1,     0.000,     0.000,   1,   1,0.93330, -38.6208,   1
    71,'71          ', 115.0000,1,     0.000,     0.000,   1,   1,0.96852, -32.3833,   1
    72,'72          ', 115.0000,1,     0.000,     0.000,   1,   1,0.96286, -29.5583,   1
    73,'73          ', 115.0000,1,     0.000,     0.000,   1,   1,0.96532, -27.6290,   1
    74,'74          ', 230.0000,1,     0.000,     0.000,   1,   1,0.98155, -23.2741,   1
    76,'76          ', 115.0000,1,     0.000,     0.000,   1,   1,0.96319, -28.6349,   1
    77,'77          ', 115.0000,1,     0.000,     0.000,   1,   1,0.97977, -26.5595,   1
    78,'78          ', 115.0000,1,     0.000,     0.000,   1,   1,0.98586, -25.5132,   1
    79,'79          ', 115.0000,1,     0.000,     0.000,   1,   1,0.97431, -26.5904,   1
    80,'80          ', 115.0000,1,     0.000,     0.000,   1,   1,0.98098, -26.3719,   1
    81,'81          ', 345.0000,1,     0.000,     0.000,   1,   1,1.02172, -19.2465,   1
    84,'84          ', 115.0000,1,     0.000,     0.000,   1,   1,1.02498, -17.4760,   1
    85,'85          ', 230.0000,1,     0.000,     0.000,   1,   1,0.98208, -18.6126,   1
    86,'86          ', 230.0000,1,     0.000,     0.000,   1,   1,0.98296, -14.4421,   1
    87,'87          ', 230.0000,1,     0.000,     0.000,   1,   1,0.98164,  -6.7532,   1
    88,'88          ', 230.0000,1,     0.000,     0.000,   1,   1,1.00320, -21.8478,   1
    89,'89          ', 115.0000,1,     0.000,     0.000,   1,   1,1.02380, -10.8933,   1
    90,'90          ', 115.0000,1,     0.000,     0.000,   1,   1,1.01736, -11.1477,   1
    91,'91          ', 115.0000,1,     0.000,     0.000,   1,   1,1.05199,  -8.8533,   1
    92,'92          ', 115.0000,1,     0.000,     0.000,   1,   1,1.05200,  -5.2061,   1
    94,'94          ', 115.0000,1,     0.000,     0.000,   1,   1,0.98493,  -8.7324,   1
    97,'97          ', 115.0000,1,     0.000,     0.000,   1,   1,1.01479, -13.3224,   1
    98,'98          ', 115.0000,1,     0.000,     0.000,   1,   1,1.00000, -15.0076,   1
    99,'99          ', 115.0000,1,     0.000,     0.000,   1,   1,0.98833, -21.6651,   1
   100,'100         ', 115.0000,1,     0.000,     0.000,   1,   1,1.00303, -14.7646,   1
   102,'102         ', 115.0000,1,     0.000,     0.000,   1,   1,0.99643, -15.6662,   1
   103,'103         ', 115.0000,1,     0.000,     0.000,   1,   1,1.02453, -11.9867,   1
   104,'104         ', 115.0000,1,     0.000,     0.000,   1,   1,0.99210, -18.1526,   1
   105,'105         ', 115.0000,1,     0.000,     0.000,   1,   1,1.01626, -13.0294,   1
   107,'107         ', 115.0000,1,     0.000,     0.000,   1,   1,1.00187, -16.7004,   1
   108,'108         ', 115.0000,1,     0.000,     0.000,   1,   1,0.98999, -21.6770,   1
   109,'109         ', 115.0000,1,     0.000,     0.000,   1,   1,0.96249, -28.3518,   1
   110,'110         ', 115.0000,1,     0.000,     0.000,   1,   1,0.96166, -26.7814,   1
   112,'112         ', 115.0000,1,     0.000,     0.000,   1,   1,0.95943, -31.2798,   1
   113,'113         ', 115.0000,1,     0.000,     0.000,   1,   1,0.95188, -27.5785,   1
   114,'114         ', 115.0000,1,     0.000,     0.000,   1,   1,0.96200, -31.1399,   1
   115,'115         ', 115.0000,1,     0.000,     0.000,   2,   2,0.90331,  10.6028,   1
   116,'116         ', 115.0000,1,     0.000,     0.000,   2,   2,1.03416,  18.4095,   1
   117,'117         ', 115.0000,1,     0.000,   373.750,   2,   2,0.88861,  26.0852,   1
   118,'118         ', 115.0000,1,     0.000,     0.000,   2,   2,0.88239,  27.3822,   1
   119,'119         ', 115.0000,1,     0.000,     0.000,   2,   2,1.04335,  43.9840,   1
   120,'120         ', 115.0000,1,     0.000,    63.250,   2,   2,1.01406,  38.4900,   1
   121,'121         ', 115.0000,1,     0.000,     0.000,   2,   2,0.82681,  14.1005,   1
   122,'122         ', 115.0000,1,     0.000,     0.000,   2,   2,0.88718,   8.1433,   1
   123,'123         ', 115.0000,1,     0.000,     0.000,   2,   2,0.96529,   3.0666,   1
   124,'124         ', 115.0000,1,     0.000,     0.000,   2,   2,1.02328,  14.9096,   1
   125,'125         ', 115.0000,1,     0.000,     0.000,   2,   2,1.01025,  -7.5176,   1
   126,'126         ', 115.0000,1,     0.000,     0.000,   2,   2,0.96721,  -2.3338,   1
   127,'127         ', 230.0000,1,     0.000,     0.000,   2,   2,0.98114,  -7.4924,   1
   128,'128         ', 230.0000,1,     0.000,     0.000,   2,   2,0.99003,  -4.6699,   1
   129,'129         ', 230.0000,1,     0.000,     0.000,   2,   2,0.98969,  -3.7684,   1
   130,'130         ', 230.0000,1,     0.000,     0.000,   2,   2,1.00855,   9.0582,   1
   131,'131         ', 230.0000,1,     0.000,     0.000,   2,   2,0.97854,   9.6543,   1
   132,'132         ', 230.0000,1,     0.000,     0.000,   2,   2,0.99657,   6.8774,   1
   133,'133         ', 230.0000,1,     0.000,     0.000,   2,   2,0.99307,  -7.1873,   1
   134,'134         ', 230.0000,1,     0.000,     0.000,   2,   2,1.01045,  -6.3064,   1
   135,'135         ', 230.0000,1,     0.000,     0.000,   2,   2,1.00853,  -6.3003,   1
   136,'136         ', 230.0000,1,     0.000,     0.000,   2,   2,1.04060,   0.2496,   1
   137,'137         ', 230.0000,1,     0.000,     0.000,   2,   2,1.04000,  -6.8976,   1
   138,'138         ', 230.0000,1,     0.000,     0.000,   2,   2,1.05495, -17.7626,   1
   139,'139         ', 115.0000,1,     0.000,     0.000,   2,   2,1.00411,  -8.8865,   1
   140,'140         ', 230.0000,1,     0.000,     0.000,   2,   2,1.03290,  -8.8370,   1
   141,'141         ', 230.0000,1,     0.000,     0.000,   2,   2,1.05099,  -4.4342,   1
   142,'142         ', 230.0000,1,     0.000,     0.000,   2,   2,0.99788,  -6.6135,   1
   143,'143         ', 230.0000,1,     0.000,     0.000,   2,   2,1.04348,   2.0669,   1
   144,'144         ', 230.0000,1,     0.000,     0.000,   2,   2,1.01076,  -1.1456,   1
   145,'145         ', 230.0000,1,     0.000,     0.000,   2,   2,0.99552,  -3.4848,   1
   146,'146         ', 230.0000,1,     0.000,     0.000,   2,   2,1.05279,   1.1887,   1
   147,'147         ', 230.0000,1,     0.000,     0.000,   2,   2,1.05280,   5.7572,   1
   148,'148         ', 230.0000,1,     0.000,     0.000,   2,   2,1.05064,  -2.4270,   1
   149,'149         ', 230.0000,1,     0.000,     0.000,   2,   2,1.07349,   3.2457,   1
   150,'150         ', 230.0000,1,     0.000,     0.000,   2,   2,0.97886,   9.9790,   1
   151,'151         ', 230.0000,1,     0.000,     0.000,   2,   2,0.99690,   7.4868,   1
   152,'152         ', 230.0000,1,     0.000,     0.000,   2,   2,1.05350,   8.8146,   1
   153,'153         ', 230.0000,1,     0.000,     0.000,   2,   2,1.04350,   9.2766,   1
   154,'154         ', 115.0000,1,     0.000,    39.675,   2,   2,0.96313,  -5.2587,   1
   155,'155         ', 230.0000,1,     0.000,     0.000,   2,   2,1.00295,   4.1836,   1
   156,'156         ', 115.0000,1,     0.000,     0.000,   2,   2,0.96299,   2.3019,   1
   157,'157         ', 230.0000,1,     0.000,     0.000,   2,   2,0.90144,  10.3453,   1
   158,'158         ', 230.0000,1,     0.000,     0.000,   2,   2,0.93182,  10.0046,   1
   159,'159         ', 230.0000,1,     0.000,     0.000,   2,   2,0.88998,  15.1811,   1
   160,'160         ', 230.0000,1,     0.000,     0.000,   2,   2,0.97205,  12.6399,   1
   161,'161         ', 230.0000,1,     0.000,     0.000,   2,   2,1.03004,   7.1652,   1
   162,'162         ', 230.0000,1,     0.000,     0.000,   2,   2,0.96389,  18.2948,   1
   163,'163         ', 230.0000,1,     0.000,     0.000,   2,   2,1.02139,  -1.3070,   1
   164,'164         ', 230.0000,1,     0.000,  -243.800,   2,   2,0.95834,   7.4514,   1
   165,'165         ', 230.0000,1,     0.000,     0.000,   2,   2,0.98071,  27.7716,   1
   166,'166         ', 230.0000,1,     0.000,  -118.450,   2,   2,0.98443,  32.4539,   1
   167,'167         ', 230.0000,1,     0.000,     0.000,   2,   2,0.95035,  -6.6729,   1
   168,'168         ', 230.0000,1,     0.000,     0.000,   2,   2,0.99009,  -4.7003,   1
   169,'169         ', 230.0000,1,     0.000,     0.000,   2,   2,0.97150,  -6.5982,   1
   170,'170         ', 115.0000,1,     0.000,     0.000,   2,   2,0.92898,   3.1289,   1
   171,'171         ', 115.0000,1,     0.000,     0.000,   2,   2,0.98287, -12.3958,   1
   172,'172         ', 115.0000,1,     0.000,     0.000,   2,   2,1.01133, -11.7174,   1
   173,'173         ', 115.0000,1,     0.000,    60.950,   2,   2,0.95389, -19.1356,   1
   174,'174         ', 115.0000,1,     0.000,     0.000,   2,   2,1.05618,  -7.5664,   1
   175,'175         ', 115.0000,1,     0.000,     0.000,   2,   2,0.94811, -11.9998,   1
   176,'176         ', 115.0000,1,     0.000,     0.000,   2,   2,1.05220,   1.8620,   1
   177,'177         ', 115.0000,1,     0.000,     0.000,   2,   2,1.00769,  -2.8646,   1
   178,'178         ', 115.0000,1,     0.000,     0.000,   2,   2,0.91470, -11.0908,   1
   179,'179         ', 115.0000,1,     0.000,    51.750,   2,   2,0.94242, -14.3338,   1
   180,'180         ', 115.0000,1,     0.000,     0.000,   2,   2,0.96107,  -6.9490,   1
   181,'181         ', 230.0000,1,     0.000,     0.000,   2,   2,1.04469,  -7.4876,   1
   182,'182         ', 230.0000,1,     0.000,     0.000,   2,   2,1.03440,  -9.6764,   1
   183,'183         ', 115.0000,1,     0.000,     0.000,   2,   2,0.97032,   5.3632,   1
   184,'184         ', 230.0000,1,     0.000,     0.000,   2,   2,1.03309,  -4.8890,   1
   185,'185         ', 230.0000,1,     0.000,     0.000,   2,   2,1.05219,  -1.9762,   1
   186,'186         ', 230.0000,1,     0.000,     0.000,   2,   2,1.06497,  -3.1097,   1
   187,'187         ', 230.0000,1,     0.000,     0.000,   2,   2,1.06496,  -4.2919,   1
   188,'188         ', 230.0000,1,     0.000,     0.000,   2,   2,1.04725,  -6.7189,   1
   189,'189         ',  66.0000,1,     0.000,     0.000,   3,   3,0.98799, -27.2696,   1
   190,'190         ', 345.0000,1,     0.000,  -172.500,   3,   3,1.05509, -20.5754,   1
   191,'191         ', 230.0000,1,     0.000,     0.000,   3,   3,1.04341,  20.6053,   1
   192,'192         ', 230.0000,1,     0.000,     0.000,   3,   3,0.89391,  -8.2139,   1
   193,'192         ',  66.0000,1,     0.000,     0.000,   3,   3,0.97769, -27.8321,   1
   194,'194         ', 345.0000,1,     0.000,     0.000,   3,   3,1.03860, -19.2379,   1
   195,'195         ', 345.0000,1,     0.000,     0.000,   3,   3,1.02768, -21.1022,   1
   196,'196         ', 115.0000,1,     0.000,     0.000,   3,   3,0.95963, -26.3574,   1
   197,'197         ', 115.0000,1,     0.000,     0.000,   3,   3,0.98391, -24.5531,   1
   198,'198         ', 115.0000,1,     0.000,     0.000,   3,   3,1.01499, -20.9529,   1
   199,'199         ', 115.0000,1,     0.000,     0.000,   3,   3,0.94097, -27.2536,   1
   200,'200         ', 115.0000,1,     0.000,     0.000,   3,   3,0.94398, -27.0929,   1
   201,'201         ',  66.0000,1,     0.000,     0.000,   1,   1,0.95191, -29.6282,   1
   202,'202         ',  66.0000,1,     0.000,     0.000,   3,   3,0.98109, -26.4503,   1
   203,'203         ', 115.0000,1,     0.000,     0.000,   3,   3,0.99921, -22.9894,   1
   204,'204         ',  66.0000,1,     0.000,     0.000,   3,   3,0.95234, -27.7989,   1
   205,'205         ',  66.0000,1,     0.000,     0.000,   3,   3,0.96855, -28.0068,   1
   206,'206         ',  66.0000,1,     0.000,     0.000,   3,   3,0.98579, -29.5831,   1
   207,'207         ',  66.0000,1,     0.000,     0.000,   1,   1,1.00169, -29.6841,   1
   208,'208         ',  66.0000,1,     0.000,     0.000,   3,   3,0.98176, -27.9341,   1
   209,'209         ',  66.0000,1,     0.000,     0.000,   3,   3,0.99132, -26.9962,   1
   210,'210         ', 115.0000,1,     0.000,     0.000,   3,   3,0.97118, -25.1364,   1
   211,'211         ', 115.0000,1,     0.000,     0.000,   3,   3,0.99461, -24.1100,   1
   212,'212         ', 138.0000,1,     0.000,     0.000,   3,   3,1.00615, -23.1081,   1
   213,'213         ',  16.5000,1,     0.000,     0.000,   3,   3,1.00999, -10.2917,   1
   214,'214         ', 138.0000,1,     0.000,     0.000,   3,   3,0.98937, -17.1071,   1
   215,'215         ', 138.0000,1,     0.000,     0.000,   3,   3,0.98025, -20.2557,   1
   216,'216         ', 138.0000,1,     0.000,     0.000,   3,   3,0.96508, -22.8768,   1
   217,'217         ', 138.0000,1,     0.000,     0.000,   3,   3,1.01558, -22.3880,   1
   218,'218         ', 138.0000,1,     0.000,     0.000,   3,   3,1.00147, -22.8653,   1
...
 0 /End of Bus data, Begin Load data
     1,'1 ',1,   1,   1,   103.500,    56.350,     0.000,     0.000,     0.000,     0.000,   1
     2,'1 ',1,   1,   1,    64.400,    17.250,     0.000,     0.000,     0.000,     0.000,   1
     3,'1 ',1,   1,   1,    23.000,     0.000,     0.000,     0.000,     0.000,     0.000,   1
     5,'1 ',1,   1,   1,   405.950,   149.500,     0.000,     0.000,     0.000,     0.000,   1
     6,'1 ',1,   1,   1,   138.000,    47.150,     0.000,     0.000,     0.000,     0.000,   1
     8,'1 ',1,   1,   1,    66.700,    16.100,     0.000,     0.000,     0.000,     0.000,   1
     9,'1 ',1,   1,   1,   110.400,    49.450,     0.000,     0.000,     0.000,     0.000,   1
    10,'1 ',1,   1,   1,   170.200,    37.950,     0.000,     0.000,     0.000,     0.000,   1
    11,'1 ',1,   1,   1,    95.450,    24.150,     0.000,     0.000,     0.000,     0.000,   1
    13,'1 ',1,   1,   1,    66.700,    11.500,     0.000,     0.000,     0.000,     0.000,   1
    14,'1 ',1,   1,   1,   184.000,    69.000,     0.000,     0.000,     0.000,     0.000,   1
    15,'1 ',1,   1,   1,   145.705,    26.450,     0.000,     0.000,     0.000,     0.000,   1
    17,'1 ',1,   1,   1,   645.150,   253.000,     0.000,     0.000,     0.000,     0.000,   1
    20,'1 ',1,   1,   1,   684.250,   138.000,     0.000,     0.000,     0.000,     0.000,   1
    21,'1 ',1,   1,   1,    88.550,     1.150,     0.000,     0.000,     0.000,     0.000,   1
    22,'1 ',1,   1,   1,    93.150,    26.450,     0.000,     0.000,     0.000,     0.000,   1
    23,'1 ',1,   1,   1,    24.150,     8.050,     0.000,     0.000,     0.000,     0.000,   1
    25,'1 ',1,   1,   1,    51.750,    13.800,     0.000,     0.000,     0.000,     0.000,   1
    26,'1 ',1,   1,   1,    32.200,    10.350,     0.000,     0.000,     0.000,     0.000,   1
    27,'1 ',1,   1,   1,    79.350,    14.950,     0.000,     0.000,     0.000,     0.000,   1
    33,'1 ',1,   1,   1,    63.250,     6.900,     0.000,     0.000,     0.000,     0.000,   1
    37,'1 ',1,   1,   1,    97.750,    36.800,     0.000,     0.000,     0.000,     0.000,   1
    38,'1 ',1,   1,   1,   178.250,    20.700,     0.000,     0.000,     0.000,     0.000,   1
    40,'1 ',1,   1,   1,    52.900,   -24.150,     0.000,     0.000,     0.000,     0.000,   1
    41,'1 ',1,   1,   1,    98.900,     0.000,     0.000,     0.000,     0.000,     0.000,   1
    43,'1 ',1,   1,   1,    44.850,    10.350,     0.000,     0.000,     0.000,     0.000,   1
    44,'1 ',1,   1,   1,   224.250,    33.350,     0.000,     0.000,     0.000,     0.000,   1
    47,'1 ',1,   1,   1,    66.700,    13.570,     0.000,     0.000,     0.000,     0.000,   1
    48,'1 ',1,   1,   1,    47.150,    21.850,     0.000,     0.000,     0.000,     0.000,   1
    49,'1 ',1,   1,   1,   105.800,    29.900,     0.000,     0.000,     0.000,     0.000,   1
    51,'1 ',1,   1,   1,    -5.750,     5.750,     0.000,     0.000,     0.000,     0.000,   1
    52,'1 ',1,   1,   1,    70.150,    32.200,     0.000,     0.000,     0.000,     0.000,   1
    53,'1 ',1,   1,   1,    79.350,     3.450,     0.000,     0.000,     0.000,     0.000,   1
    54,'1 ',1,   1,   1,    11.500,     1.150,     0.000,     0.000,     0.000,     0.000,   1
    55,'1 ',1,   1,   1,    25.300,    11.500,     0.000,     0.000,     0.000,     0.000,   1
    57,'1 ',1,   1,   1,   112.700,    23.000,     0.000,     0.000,     0.000,     0.000,   1
    58,'1 ',1,   1,   1,    16.100,     1.150,     0.000,     0.000,     0.000,     0.000,   1
    59,'1 ',1,   1,   1,   250.700,   121.900,     0.000,     0.000,     0.000,     0.000,   1
    61,'1 ',1,   1,   1,   261.050,   126.500,     0.000,     0.000,     0.000,     0.000,   1
    63,'1 ',1,   1,   1,    80.500,    34.500,     0.000,     0.000,     0.000,     0.000,   1
    70,'1 ',1,   1,   1,    64.400,    23.000,     0.000,     0.000,     0.000,     0.000,   1
    71,'1 ',1,   1,   1,   133.400,    43.700,     0.000,     0.000,     0.000,     0.000,   1
    72,'1 ',1,   1,   1,    65.550,    21.850,     0.000,     0.000,     0.000,     0.000,   1
    73,'1 ',1,   1,   1,   257.600,    81.650,     0.000,     0.000,     0.000,     0.000,   1
    76,'1 ',1,   1,   1,   239.200,   123.050,     0.000,     0.000,     0.000,     0.000,   1
    77,'1 ',1,   1,   1,    85.100,    32.200,     0.000,     0.000,     0.000,     0.000,   1
    79,'1 ',1,   1,   1,    55.200,    16.100,     0.000,     0.000,     0.000,     0.000,   1
    80,'1 ',1,   1,   1,    32.200,     8.050,     0.000,     0.000,     0.000,     0.000,   1
    84,'1 ',1,   1,   1,    42.550,    14.950,     0.000,     0.000,     0.000,     0.000,   1
    89,'1 ',1,   1,   1,    50.830,     0.000,     0.000,     0.000,     0.000,     0.000,   1
    90,'1 ',1,   1,   1,    75.900,     0.000,     0.000,     0.000,     0.000,     0.000,   1
    91,'1 ',1,   1,   1,    20.010,     0.000,     0.000,     0.000,     0.000,     0.000,   1
    92,'1 ',1,   1,   1,    18.170,     0.000,     0.000,     0.000,     0.000,     0.000,   1
    94,'1 ',1,   1,   1,    69.345,     0.000,     0.000,     0.000,     0.000,     0.000,   1
    97,'1 ',1,   1,   1,    45.885,     0.000,     0.000,     0.000,     0.000,     0.000,   1
    98,'1 ',1,   1,   1,    76.705,     0.000,     0.000,     0.000,     0.000,     0.000,   1
    99,'1 ',1,   1,   1,    96.025,     0.000,     0.000,     0.000,     0.000,     0.000,   1
   102,'1 ',1,   1,   1,    89.470,     0.000,     0.000,     0.000,     0.000,     0.000,   1
   103,'1 ',1,   1,   1,    36.800,     0.000,     0.000,     0.000,     0.000,     0.000,   1
   104,'1 ',1,   1,   1,     9.890,     0.000,     0.000,     0.000,     0.000,     0.000,   1
   105,'1 ',1,   1,   1,    57.040,     0.000,     0.000,     0.000,     0.000,     0.000,   1
   107,'1 ',1,   1,   1,     5.290,     0.000,     0.000,     0.000,     0.000,     0.000,   1
   108,'1 ',1,   1,   1,   128.915,     0.000,     0.000,     0.000,     0.000,     0.000,   1
   109,'1 ',1,   1,   1,    35.305,     0.000,     0.000,     0.000,     0.000,     0.000,   1
   110,'1 ',1,   1,   1,    72.450,     0.000,     0.000,     0.000,     0.000,     0.000,   1
   112,'1 ',1,   1,   1,    22.540,     0.000,     0.000,     0.000,     0.000,     0.000,   1
   113,'1 ',1,   1,   1,    30.130,     0.000,     0.000,     0.000,     0.000,     0.000,   1
   114,'1 ',1,   1,   1,    20.930,     0.000,     0.000,     0.000,     0.000,     0.000,   1
   118,'1 ',1,   2,   2,    16.215,   747.500,     0.000,     0.000,     0.000,     0.000,   1
   119,'1 ',1,   2,   2,   115.345,    39.560,     0.000,     0.000,     0.000,     0.000,   1
   121,'1 ',1,   2,   2,   615.250,    63.250,     0.000,     0.000,     0.000,     0.000,   1
   122,'1 ',1,   2,   2,   263.465,    13.570,     0.000,     0.000,     0.000,     0.000,   1
   123,'1 ',1,   2,   2,    89.700,     1.610,     0.000,     0.000,     0.000,     0.000,   1
   124,'1 ',1,   2,   2,   317.860,    68.195,     0.000,     0.000,     0.000,     0.000,   1
   125,'1 ',1,   2,   2,   592.020,    95.105,     0.000,     0.000,     0.000,     0.000,   1
   126,'1 ',1,   2,   2,    66.585,     5.865,     0.000,     0.000,     0.000,     0.000,   1
   127,'1 ',1,   2,   2,   437.920,    42.550,     0.000,     0.000,     0.000,     0.000,   1
   135,'1 ',1,   2,   2,   194.580,    47.840,     0.000,     0.000,     0.000,     0.000,   1
   136,'1 ',1,   2,   2,    63.480,    20.930,     0.000,     0.000,     0.000,     0.000,   1
   137,'1 ',1,   2,   2,   314.640,   114.770,     0.000,     0.000,     0.000,     0.000,   1
   138,'1 ',1,   2,   2,   950.705,   155.480,     0.000,     0.000,     0.000,     0.000,   1
   139,'1 ',1,   2,   2,   684.250,    95.795,     0.000,     0.000,     0.000,     0.000,   1
   140,'1 ',1,   2,   2,   445.855,   131.905,     0.000,     0.000,     0.000,     0.000,   1
   141,'1 ',1,   2,   2,   166.750,    66.700,     0.000,     0.000,     0.000,     0.000,   1
   142,'1 ',1,   2,   2,    64.975,    28.175,     0.000,     0.000,     0.000,     0.000,   1
   143,'1 ',1,   2,   2,   102.925,    40.825,     0.000,     0.000,     0.000,     0.000,   1
   145,'1 ',1,   2,   2,    27.600,    16.100,     0.000,     0.000,     0.000,     0.000,   1
   148,'1 ',1,   2,   2,    72.450,    28.750,     0.000,     0.000,     0.000,     0.000,   1
   152,'1 ',1,   2,   2,    19.550,    10.350,     0.000,     0.000,     0.000,     0.000,   1
   154,'1 ',1,   2,   2,    80.500,     5.750,     0.000,     0.000,     0.000,     0.000,   1
   155,'1 ',1,   2,   2,   230.000,    57.500,     0.000,     0.000,     0.000,     0.000,   1
   156,'1 ',1,   2,   2,    86.250,    57.500,     0.000,     0.000,     0.000,     0.000,   1
   157,'1 ',1,   2,   2,   142.025,    27.945,     0.000,     0.000,     0.000,     0.000,   1
   159,'1 ',1,   2,   2,    37.950,    18.975,     0.000,     0.000,     0.000,     0.000,   1
   161,'1 ',1,   2,   2,    40.250,    17.250,     0.000,     0.000,     0.000,     0.000,   1
   162,'1 ',1,   2,   2,    97.750,    27.600,     0.000,     0.000,     0.000,     0.000,   1
   163,'1 ',1,   2,   2,     0.000,     0.460,     0.000,     0.000,     0.000,     0.000,   1
   167,'1 ',1,   2,   2,   344.885,   110.055,     0.000,     0.000,     0.000,     0.000,   1
   170,'1 ',1,   2,   2,   554.070,   235.750,     0.000,     0.000,     0.000,     0.000,   1
   171,'1 ',1,   2,   2,   878.140,   334.765,     0.000,     0.000,     0.000,     0.000,   1
   172,'1 ',1,   2,   2,    30.475,     0.000,     0.000,     0.000,     0.000,     0.000,   1
   173,'1 ',1,   2,   2,   188.025,    49.450,     0.000,     0.000,     0.000,     0.000,   1
   175,'1 ',1,   2,   2,   202.400,    95.450,     0.000,     0.000,     0.000,     0.000,   1
   176,'1 ',1,   2,   2,     5.750,     4.600,     0.000,     0.000,     0.000,     0.000,   1
   177,'1 ',1,   2,   2,    32.200,    13.800,     0.000,     0.000,     0.000,     0.000,   1
   178,'1 ',1,   2,   2,   491.510,   199.640,     0.000,     0.000,     0.000,     0.000,   1
   179,'1 ',1,   2,   2,    85.100,    33.350,     0.000,     0.000,     0.000,     0.000,   1
   180,'1 ',1,   2,   2,    79.925,    56.695,     0.000,     0.000,     0.000,     0.000,   1
   181,'1 ',1,   2,   2,    84.410,     0.000,     0.000,     0.000,     0.000,     0.000,   1
   182,'1 ',1,   2,   2,   276.805,   102.350,     0.000,     0.000,     0.000,     0.000,   1
   183,'1 ',1,   2,   2,    46.000,     4.600,     0.000,     0.000,     0.000,     0.000,   1
   184,'1 ',1,   2,   2,   157.320,    19.090,     0.000,     0.000,     0.000,     0.000,   1
   186,'1 ',1,   2,   2,    68.770,    27.945,     0.000,     0.000,     0.000,     0.000,   1
   187,'1 ',1,   2,   2,    68.770,    27.945,     0.000,     0.000,     0.000,     0.000,   1
   188,'1 ',1,   2,   2,   209.990,    50.140,     0.000,     0.000,     0.000,     0.000,   1
   189,'1 ',1,   3,   3,     8.050,     2.300,     0.000,     0.000,     0.000,     0.000,   1
   191,'1 ',1,   3,   3,   562.350,    60.950,     0.000,     0.000,     0.000,     0.000,   1
   192,'1 ',1,   3,   3,   920.000,    82.800,     0.000,     0.000,     0.000,     0.000,   1
   196,'1 ',1,   3,   3,    11.500,     3.450,     0.000,     0.000,     0.000,     0.000,   1
   197,'1 ',1,   3,   3,    49.450,    16.100,     0.000,     0.000,     0.000,     0.000,   1
   198,'1 ',1,   3,   3,    73.600,    24.150,     0.000,     0.000,     0.000,     0.000,   1
   199,'1 ',1,   3,   3,    40.250,    13.800,     0.000,     0.000,     0.000,     0.000,   1
   200,'1 ',1,   3,   3,    31.050,    13.800,     0.000,     0.000,     0.000,     0.000,   1
   201,'1 ',1,   1,   1,    47.150,    16.100,     0.000,     0.000,     0.000,     0.000,   1
   202,'1 ',1,   3,   3,    43.700,    14.950,     0.000,     0.000,     0.000,     0.000,   1
   203,'1 ',1,   3,   3,    48.300,    16.100,     0.000,     0.000,     0.000,     0.000,   1
   204,'1 ',1,   3,   3,    82.800,    27.600,     0.000,     0.000,     0.000,     0.000,   1
   205,'1 ',1,   3,   3,     0.000,    -5.750,     0.000,     0.000,     0.000,     0.000,   1
   206,'1 ',1,   3,   3,    13.800,     2.300,     0.000,     0.000,     0.000,     0.000,   1
   207,'1 ',1,   1,   1,   -24.150,   -16.330,     0.000,     0.000,     0.000,     0.000,   1
   208,'1 ',1,   3,   3,     8.050,     2.300,     0.000,     0.000,     0.000,     0.000,   1
   209,'1 ',1,   3,   3,    43.700,    14.950,     0.000,     0.000,     0.000,     0.000,   1
   211,'1 ',1,   3,   3,   110.400,     8.050,     0.000,     0.000,     0.000,     0.000,   1
   214,'1 ',1,   3,   3,    25.300,    18.400,     0.000,     0.000,     0.000,     0.000,   1
   215,'1 ',1,   3,   3,    54.050,    29.900,     0.000,     0.000,     0.000,     0.000,   1
   216,'1 ',1,   3,   3,   202.400,   120.750,     0.000,     0.000,     0.000,     0.000,   1
   217,'1 ',1,   3,   3,   115.000,    86.250,     0.000,     0.000,     0.000,     0.000,   1
   218,'1 ',1,   3,   3,   150.650,   110.400,     0.000,     0.000,     0.000,     0.000,   1
   220,'1 ',1,   3,   3,   327.750,   115.000,     0.000,     0.000,     0.000,     0.000,   1
   221,'1 ',1,   3,   3,   196.650,    80.500,     0.000,     0.000,     0.000,     0.000,   1
   222,'1 ',1,   3,   3,   377.200,   216.200,     0.000,     0.000,     0.000,     0.000,   1
   223,'1 ',1,   3,   3,   492.200,   266.800,     0.000,     0.000,     0.000,     0.000,   1
   224,'1 ',1,   3,   3,   198.950,   113.850,     0.000,     0.000,     0.000,     0.000,   1
   225,'1 ',1,   3,   3,   471.500,    46.000,     0.000,     0.000,     0.000,     0.000,   1
   227,'1 ',1,   3,   3,   618.700,   424.350,     0.000,     0.000,     0.000,     0.000,   1
   228,'1 ',1,   3,   3,   256.450,   170.200,     0.000,     0.000,     0.000,     0.000,   1
   229,'1 ',1,   3,   3,   110.400,    52.900,     0.000,     0.000,     0.000,     0.000,   1
   231,'1 ',1,   3,   3,   182.850,   123.050,     0.000,     0.000,     0.000,     0.000,   1
   232,'1 ',1,   3,   3,   515.200,   164.450,     0.000,     0.000,     0.000,     0.000,   1
   233,'1 ',1,   3,   3,   464.600,   243.800,     0.000,     0.000,     0.000,     0.000,   1
   234,'1 ',1,   3,   3,   657.800,   280.600,     0.000,     0.000,     0.000,     0.000,   1
   235,'1 ',1,   3,   3,   309.350,   180.550,     0.000,     0.000,     0.000,     0.000,   1
   238,'1 ',1,   3,   3,   293.250,   171.350,     0.000,     0.000,     0.000,     0.000,   1
   243,'1 ',1,   3,   3,     9.200,     3.450,     0.000,     0.000,     0.000,     0.000,   1
   245,'1 ',1,   3,   3,    70.150,    34.500,     0.000,     0.000,     0.000,     0.000,   1
   246,'1 ',1,   3,   3,    88.550,    37.950,     0.000,     0.000,     0.000,     0.000,   1
   247,'1 ',1,   3,   3,    70.150,    34.500,     0.000,     0.000,     0.000,     0.000,   1
   248,'1 ',1,   3,   3,    33.350,    16.100,     0.000,     0.000,     0.000,     0.000,   1
   249,'1 ',1,   3,   3,    33.350,    16.100,     0.000,     0.000,     0.000,     0.000,   1
   250,'1 ',1,   3,   3,   -26.450,   -19.550,     0.000,     0.000,     0.000,     0.000,   1
   281,'1 ',1,   3,   3,   -38.065,   -33.810,     0.000,     0.000,     0.000,     0.000,   1
   319,'1 ',1,   1,   1,   133.170,   -27.600,     0.000,     0.000,     0.000,     0.000,   1
   320,'1 ',1,   1,   1,     2.760,   -14.490,     0.000,     0.000,     0.000,     0.000,   1
   322,'1 ',1,   1,   1,     2.760,    -4.485,     0.000,     0.000,     0.000,     0.000,   1
   323,'1 ',1,   1,   1,   -17.135,    30.475,     0.000,     0.000,     0.000,     0.000,   1
   324,'1 ',1,   1,   1,    28.405,    -1.380,     0.000,     0.000,     0.000,     0.000,   1
   526,'1 ',1,   1,   1,   167.095,   -40.135,     0.000,     0.000,     0.000,     0.000,   1
   528,'1 ',1,   1,   1,    32.315,   -23.575,     0.000,     0.000,     0.000,     0.000,   1
   531,'1 ',1,   1,   1,    16.100,     2.875,     0.000,     0.000,     0.000,     0.000,   1
   552,'1 ',1,   1,   1,   -12.765,    -1.610,     0.000,     0.000,     0.000,     0.000,   1
   562,'1 ',1,   1,   1,    58.075,    20.010,     0.000,     0.000,     0.000,     0.000,   1
   609,'1 ',1,   1,   1,    34.040,     0.690,     0.000,     0.000,     0.000,     0.000,   1
   664,'1 ',1,   3,   3,  -130.755,    88.205,     0.000,     0.000,     0.000,     0.000,   1
  1190,'1 ',1,   1,   1,   115.356,    33.546,     0.000,     0.000,     0.000,     0.000,   1
  1200,'1 ',1,   1,   1,  -115.000,    39.295,     0.000,     0.000,     0.000,     0.000,   1
  9003,'1 ',1,   1,   9,     3.116,     1.081,     0.000,     0.000,     0.000,     0.000,   1
  9004,'1 ',1,   1,   9,     0.989,     0.322,     0.000,     0.000,     0.000,     0.000,   1
  9021,'1 ',1,   1,   9,     5.462,     1.794,     0.000,     0.000,     0.000,     0.000,   1
  9022,'1 ',1,   1,   9,     1.760,     0.609,     0.000,     0.000,     0.000,     0.000,   1
  9024,'1 ',1,   1,   9,     1.553,     0.540,     0.000,     0.000,     0.000,     0.000,   1
  9025,'1 ',1,   1,   9,     0.517,     0.184,     0.000,     0.000,     0.000,     0.000,   1
  9026,'1 ',1,   1,   9,     0.517,     0.184,     0.000,     0.000,     0.000,     0.000,   1
  9031,'1 ',1,   1,   9,     2.116,     0.736,     0.000,     0.000,     0.000,     0.000,   1
  9032,'1 ',1,   1,   9,     1.598,     0.552,     0.000,     0.000,     0.000,     0.000,   1
  9033,'1 ',1,   1,   9,     2.174,     0.747,     0.000,     0.000,     0.000,     0.000,   1
  9034,'1 ',1,   1,   9,     1.783,     0.621,     0.000,     0.000,     0.000,     0.000,   1
  9035,'1 ',1,   1,   9,     1.909,     0.667,     0.000,     0.000,     0.000,     0.000,   1
  9036,'1 ',1,   1,   9,     3.484,     1.150,     0.000,     0.000,     0.000,     0.000,   1
  9037,'1 ',1,   1,   9,     2.139,     0.736,     0.000,     0.000,     0.000,     0.000,   1
  9038,'1 ',1,   1,   9,     2.967,     1.023,     0.000,     0.000,     0.000,     0.000,   1
  9041,'1 ',1,   1,   9,     1.161,     0.402,     0.000,     0.000,     0.000,     0.000,   1
  9042,'1 ',1,   1,   9,     0.932,     0.322,     0.000,     0.000,     0.000,     0.000,   1
  9043,'1 ',1,   1,   9,     1.840,     0.598,     0.000,     0.000,     0.000,     0.000,   1
  9052,'1 ',1,   1,   9,    34.500,    26.450,     0.000,     0.000,     0.000,     0.000,   1
  9071,'1 ',1,   1,   9,     1.173,     0.402,     0.000,     0.000,     0.000,     0.000,   1
  9072,'1 ',1,   1,   9,     1.173,     0.402,     0.000,     0.000,     0.000,     0.000,   1
  9121,'1 ',1,   1,   9,     4.370,     1.438,     0.000,     0.000,     0.000,     0.000,   1
  9533,'1 ',1,   1,   9,     1.368,     0.471,     0.000,     0.000,     0.000,     0.000,   1
 0 /End of Load data, Begin Generator data
 10000,'1 ',    -5.750,    65.692,    72.261,   -10.000,1.01530,     0,    79.132,   0.00140,   0.12000,   0.00000,   0.00000,1.00000,1,  100.0,  9999.000, -9999.000,   1,1.0000
 10001,'1 ',    -5.750,    38.325,    42.157,   -20.000,1.02050,     0,    46.504,   0.00140,   0.12000,   0.00000,   0.00000,1.00000,1,  100.0,  9999.000, -9999.000,   1,1.0000
 10002,'1 ',   -11.500,   103.140,   113.454,   -20.000,1.00100,     0,   124.535,   0.00140,   0.12000,   0.00000,   0.00000,1.00000,1,  100.0,  9999.000, -9999.000,   1,1.0000
 10003,'1 ',     0.000,    60.819,    66.901,   -25.000,0.95830,     0,    72.983,   0.00140,   0.12000,   0.00000,   0.00000,1.00000,1,  100.0,  9999.000, -9999.000,   1,1.0000
 10004,'1 ',     0.000,   113.233,   124.557,    12.000,0.96320,     0,   135.880,   0.00140,   0.12000,   0.00000,   0.00000,1.00000,1,  100.0,  9999.000, -9999.000,   1,1.0000
 10005,'1 ',   435.000,   153.931,   240.000,  -240.000,1.02500,     0,   835.000,   0.00190,   0.33900,   0.00000,   0.00000,1.00000,1,  100.0,  9999.000, -9999.000,   1,1.0000
 10006,'1 ',   179.800,    53.174,    96.000,   -11.000,1.05200,     0,   270.000,   0.00160,   0.18500,   0.00000,   0.00000,1.00000,1,  100.0,  9999.000, -9999.000,   1,1.0000
 10007,'1 ',   336.400,    44.325,   153.000,  -153.000,1.05200,     0,   410.000,   0.00190,   0.22840,   0.00000,   0.00000,1.00000,1,  100.0,  9999.000, -9999.000,   1,1.0000
 10008,'1 ',    78.880,    -2.730,    56.000,   -30.000,1.00000,     0,   125.000,   0.00400,   0.13400,   0.00000,   0.00000,1.00000,1,  100.0,  9999.000, -9999.000,   1,1.0000
 10009,'1 ',   135.720,    50.847,    77.000,   -24.000,0.99000,     0,   270.000,   0.00160,   0.18500,   0.00000,   0.00000,1.00000,1,  100.0,  9999.000, -9999.000,   1,1.0000
 10010,'1 ',  2238.800,  1527.971,  2200.000,  -500.000,1.04350,     0,  2911.000,   0.00100,   0.19300,   0.00000,   0.00000,1.00000,1,  100.0,  9999.000, -9999.000,   1,1.0000
 10011,'1 ',   278.400,   247.061,   271.767,   -60.000,1.02330,     0,   410.000,   0.00190,   0.22840,   0.00000,   0.00000,1.00000,1,  100.0,  9999.000, -9999.000,   1,1.0000
 10012,'1 ',     0.000,   473.323,   520.656,   -25.000,1.01030,     0,   567.988,   0.00140,   0.12000,   0.00000,   0.00000,1.00000,1,  100.0,  9999.000, -9999.000,   1,1.0000
 10013,'1 ', -1063.785,   478.127,   525.940,  -125.000,1.05500,     0,  1399.553,   0.00100,   0.19300,   0.00000,   0.00000,1.00000,1,  100.0,  9999.000, -9999.000,   1,1.0000
 10014,'1 ',   325.960,    98.120,   107.932,   -50.000,1.05100,     0,   410.000,   0.00190,   0.22840,   0.00000,   0.00000,1.00000,1,  100.0,  9999.000, -9999.000,   1,1.0000
 10015,'1 ',   807.360,   205.850,   300.000,  -100.000,1.04350,     0,   911.000,   0.00100,   0.19300,   0.00000,   0.00000,1.00000,1,  100.0,  9999.000, -9999.000,   1,1.0000
 10016,'1 ',    97.440,    64.374,    70.812,   -15.000,1.05280,     0,   125.000,   0.00400,   0.13400,   0.00000,   0.00000,1.00000,1,  100.0,  9999.000, -9999.000,   1,1.0000
 10017,'1 ',   251.720,   -46.933,   100.000,   -50.000,1.05280,     0,   410.000,   0.00190,   0.22840,   0.00000,   0.00000,1.00000,1,  100.0,  9999.000, -9999.000,   1,1.0000
 10018,'1 ',   119.480,    58.248,    64.073,   -25.000,1.07350,     0,   270.000,   0.00160,   0.18500,   0.00000,   0.00000,1.00000,1,  100.0,  9999.000, -9999.000,   1,1.0000
 10019,'1 ',   431.520,   -32.259,   175.000,   -50.000,1.05350,     0,   835.000,   0.00190,   0.33900,   0.00000,   0.00000,1.00000,1,  100.0,  9999.000, -9999.000,   1,1.0000
 10020,'1 ',   250.560,    -3.302,    90.000,   -50.000,1.04350,     0,   410.000,   0.00190,   0.22840,   0.00000,   0.00000,1.00000,1,  100.0,  9999.000, -9999.000,   1,1.0000
 10021,'1 ',     0.000,    76.152,    83.767,   -10.000,0.96300,     0,    91.382,   0.00140,   0.12000,   0.00000,   0.00000,1.00000,1,  100.0,  9999.000, -9999.000,   1,1.0000
 10022,'1 ',   237.800,   159.957,   175.953,   -40.000,0.92900,     0,   410.000,   0.00190,   0.22840,   0.00000,   0.00000,1.00000,1,  100.0,  9999.000, -9999.000,   1,1.0000
 10023,'1 ',     0.000,   292.780,   322.058,   -50.000,0.98290,     0,   351.336,   0.00140,   0.12000,   0.00000,   0.00000,1.00000,1,  100.0,  9999.000, -9999.000,   1,1.0000
 10024,'1 ',   264.480,    49.792,    90.000,   -45.000,1.05220,     0,   410.000,   0.00190,   0.22840,   0.00000,   0.00000,1.00000,1,  100.0,  9999.000, -9999.000,   1,1.0000
 10025,'1 ',    97.440,    68.353,    75.188,   -15.000,1.00770,     0,   270.000,   0.00160,   0.18500,   0.00000,   0.00000,1.00000,1,  100.0,  9999.000, -9999.000,   1,1.0000
 10026,'1 ',   232.000,    55.040,    80.000,   -50.000,1.05220,     0,   410.000,   0.00190,   0.22840,   0.00000,   0.00000,1.00000,1,  100.0,  9999.000, -9999.000,   1,1.0000
 10027,'1 ',  1392.000,   361.239,   400.000,  -100.000,1.06500,     0,  1911.000,   0.00100,   0.19300,   0.00000,   0.00000,1.00000,1,  100.0,  9999.000, -9999.000,   1,1.0000
 10028,'1 ',  1392.000,   444.428,   488.871,  -100.000,1.06500,     0,  1911.000,   0.00100,   0.19300,   0.00000,   0.00000,1.00000,1,  100.0,  9999.000, -9999.000,   1,1.0000
 10029,'1 ',   551.000,   152.071,   300.000,  -300.000,1.05510,     0,   835.000,   0.00190,   0.33900,   0.00000,   0.00000,1.00000,1,  100.0,  9999.000, -9999.000,   1,1.0000
 10030,'1 ',  2288.680,   987.377,  1000.000, -1000.000,1.04350,     0,  2911.000,   0.00100,   0.19300,   0.00000,   0.00000,1.00000,1,  100.0,  9999.000, -9999.000,   1,1.0000
 10031,'1 ',   491.840,   137.527,   260.000,  -260.000,1.01500,     0,   835.000,   0.00190,   0.33900,   0.00000,   0.00000,1.00000,1,  100.0,  9999.000, -9999.000,   1,1.0000
 10032,'1 ',   315.520,    52.652,   150.000,  -150.000,1.01000,     0,   512.000,   0.00400,   0.20000,   0.00000,   0.00000,1.00000,1,  100.0,  9999.000, -9999.000,   1,1.0000
 10033,'1 ',   116.000,    95.473,   105.020,   -60.000,1.00800,     0,   270.000,   0.00160,   0.18500,   0.00000,   0.00000,1.00000,1,  100.0,  9999.000, -9999.000,   1,1.0000
 10034,'1 ',   522.000,   270.794,   320.000,  -320.000,1.00000,     0,   835.000,   0.00190,   0.33900,   0.00000,   0.00000,1.00000,1,  100.0,  9999.000, -9999.000,   1,1.0000
 10035,'1 ',   290.000,   180.173,   300.000,  -300.000,1.05000,     0,   410.000,   0.00190,   0.22840,   0.00000,   0.00000,1.00000,1,  100.0,  9999.000, -9999.000,   1,1.0000
 10036,'1 ',   351.480,   321.326,   353.458,  -300.000,1.00000,     0,   512.000,   0.00400,   0.20000,   0.00000,   0.00000,1.00000,1,  100.0,  9999.000, -9999.000,   1,1.0000
 10037,'1 ',   400.200,    66.368,   250.000,  -250.000,1.04000,     0,   835.000,   0.00190,   0.33900,   0.00000,   0.00000,1.00000,1,  100.0,  9999.000, -9999.000,   1,1.0000
 10038,'1 ',   348.000,   175.662,   500.000,  -500.000,1.00000,     0,   512.000,   0.00400,   0.20000,   0.00000,   0.00000,1.00000,1,  100.0,  9999.000, -9999.000,   1,1.0000
 10039,'1 ',   696.000,   340.802,   374.882,  -300.000,1.01650,     0,   911.000,   0.00100,   0.19300,   0.00000,   0.00000,1.00000,1,  100.0,  9999.000, -9999.000,   1,1.0000
 10040,'1 ',   290.000,   248.329,   273.161,  -200.000,1.01000,     0,   410.000,   0.00190,   0.22840,   0.00000,   0.00000,1.00000,1,  100.0,  9999.000, -9999.000,   1,1.0000
 10041,'1 ',   638.000,    74.217,   400.000,  -400.000,1.00000,     0,   911.000,   0.00100,   0.19300,   0.00000,   0.00000,1.00000,1,  100.0,  9999.000, -9999.000,   1,1.0000
 10042,'1 ',   666.745,    -3.109,   600.000,  -600.000,1.05000,     0,   911.000,   0.00100,   0.19300,   0.00000,   0.00000,1.00000,1,  100.0,  9999.000, -9999.000,   1,1.0000
 10043,'1 ',   197.200,    87.221,   100.000,    40.000,0.99300,     0,   410.000,   0.00190,   0.22840,   0.00000,   0.00000,1.00000,1,  100.0,  9999.000, -9999.000,   1,1.0000
 10044,'1 ',    97.440,    59.577,    80.000,    40.000,1.01000,     0,   270.000,   0.00160,   0.18500,   0.00000,   0.00000,1.00000,1,  100.0,  9999.000, -9999.000,   1,1.0000
 10045,'1 ',   541.720,   179.325,   210.000,  -210.000,1.05070,     0,   835.000,   0.00190,   0.33900,   0.00000,   0.00000,1.00000,1,  100.0,  9999.000, -9999.000,   1,1.0000
 10046,'1 ',   722.680,   117.239,   280.000,  -280.000,1.05070,     0,   911.000,   0.00100,   0.19300,   0.00000,   0.00000,1.00000,1,  100.0,  9999.000, -9999.000,   1,1.0000
 10047,'1 ',  1403.600,   514.078,   565.486,  -420.000,1.03230,     0,  1511.000,   0.00100,   0.19300,   0.00000,   0.00000,1.00000,1,  100.0,  9999.000, -9999.000,   1,1.0000
 10048,'1 ',   271.440,    64.492,   100.000,  -100.000,1.01450,     0,   410.000,   0.00190,   0.22840,   0.00000,   0.00000,1.00000,1,  100.0,  9999.000, -9999.000,   1,1.0000
 10049,'1 ',   431.520,   223.931,   224.000,  -224.000,1.05070,     0,   835.000,   0.00190,   0.33900,   0.00000,   0.00000,1.00000,1,  100.0,  9999.000, -9999.000,   1,1.0000
 10050,'1 ',   382.800,   423.691,   466.060,     0.000,1.05070,     0,   835.000,   0.00190,   0.33900,   0.00000,   0.00000,1.00000,1,  100.0,  9999.000, -9999.000,   1,1.0000
 10051,'1 ',   214.600,    13.332,   120.000,     0.000,1.05070,     0,   410.000,   0.00190,   0.22840,   0.00000,   0.00000,1.00000,1,  100.0,  9999.000, -9999.000,   1,1.0000
 10052,'1 ',   475.600,   124.710,   224.000,  -224.000,1.02900,     0,   835.000,   0.00190,   0.33900,   0.00000,   0.00000,1.00000,1,  100.0,  9999.000, -9999.000,   1,1.0000
 10053,'1 ',   580.000,   209.421,   230.363,  -200.000,1.05000,     0,   835.000,   0.00190,   0.33900,   0.00000,   0.00000,1.00000,1,  100.0,  9999.000, -9999.000,   1,1.0000
 10054,'1 ',    42.920,    51.433,    56.576,     0.000,1.01450,     0,   125.000,   0.00400,   0.13400,   0.00000,   0.00000,1.00000,1,  100.0,  9999.000, -9999.000,   1,1.0000
 10055,'1 ',   487.148,    69.564,    76.521,     0.000,1.05070,     0,   835.000,   0.00190,   0.33900,   0.00000,   0.00000,1.00000,1,  100.0,  9999.000, -9999.000,   1,1.0000
 10056,'1 ',    52.200,    32.251,    35.476,     0.000,0.99670,     0,   125.000,   0.00400,   0.13400,   0.00000,   0.00000,1.00000,1,  100.0,  9999.000, -9999.000,   1,1.0000
 10057,'1 ',   191.400,   103.767,   114.144,   -90.000,1.02120,     0,   410.000,   0.00190,   0.22840,   0.00000,   0.00000,1.00000,1,  100.0,  9999.000, -9999.000,   1,1.0000
 10058,'1 ',   464.000,   164.572,   181.030,  -150.000,1.01450,     0,   835.000,   0.00190,   0.33900,   0.00000,   0.00000,1.00000,1,  100.0,  9999.000, -9999.000,   1,1.0000
 10059,'1 ',   464.000,   177.031,   194.735,     0.000,1.00170,     0,   835.000,   0.00190,   0.33900,   0.00000,   0.00000,1.00000,1,  100.0,  9999.000, -9999.000,   1,1.0000
 10060,'1 ',   134.560,   104.874,   115.361,     0.000,0.98930,     0,   270.000,   0.00160,   0.18500,   0.00000,   0.00000,1.00000,1,  100.0,  9999.000, -9999.000,   1,1.0000
 10061,'1 ',  1498.720,   437.964,   600.000,  -100.000,1.05070,     0,  1873.682,   0.00100,   0.19300,   0.00000,   0.00000,1.00000,1,  100.0,  9999.000, -9999.000,   1,1.0000
 10062,'1 ',   812.000,   345.410,   379.951,  -125.000,1.05070,     0,   911.000,   0.00100,   0.19300,   0.00000,   0.00000,1.00000,1,  100.0,  9999.000, -9999.000,   1,1.0000
 10063,'1 ',   641.480,   229.803,   300.000,  -200.000,1.01450,     0,   911.000,   0.00100,   0.19300,   0.00000,   0.00000,1.00000,1,  100.0,  9999.000, -9999.000,   1,1.0000
 10064,'1 ',    -4.830,     4.732,     5.205,    -2.000,0.99450,     0,    25.000,   0.00140,   0.12000,   0.00000,   0.00000,1.00000,1,  100.0,  9999.000, -9999.000,   1,1.0000
 10065,'1 ',   -41.182,    19.489,    21.438,   -17.350,1.00000,     0,   125.000,   0.00400,   0.13400,   0.00000,   0.00000,1.00000,1,  100.0,  9999.000, -9999.000,   1,1.0000
 10066,'1 ',   -30.452,    15.004,    16.505,   -12.800,1.00000,     0,   125.000,   0.00400,   0.13400,   0.00000,   0.00000,1.00000,1,  100.0,  9999.000, -9999.000,   1,1.0000
 10067,'1 ',    58.000,    27.821,    38.000,   -38.000,1.00000,     0,   125.000,   0.00400,   0.13400,   0.00000,   0.00000,1.00000,1,  100.0,  9999.000, -9999.000,   1,1.0000
 10068,'1 ',     9.280,     5.139,     6.000,    -6.000,1.00000,     0,    25.000,   0.00140,   0.12000,   0.00000,   0.00000,1.00000,1,  100.0,  9999.000, -9999.000,   1,1.0000
 0 /End of Generator data, Begin Branch data
     1,      5,'1 ',   0.00100,   0.00600,   0.00000,    0.00,    0.00,    0.00,  0.00000,  0.00000,  0.00000,  0.00000,1,   0.00,   1,1.0000
     2,      6,'1 ',   0.00100,   0.00900,   0.00000,    0.00,    0.00,    0.00,  0.00000,  0.00000,  0.00000,  0.00000,1,   0.00,   1,1.0000
     2,      8,'1 ',   0.00600,   0.02700,   0.05400,    0.00,    0.00,    0.00,  0.00000,  0.00000,  0.00000,  0.00000,1,   0.00,   1,1.0000
     3,      7,'1 ',   0.00000,   0.00300,   0.00000,    0.00,    0.00,    0.00,  0.00000,  0.00000,  0.00000,  0.00000,1,   0.00,   1,1.0000
     3,     19,'1 ',   0.00800,   0.06900,   0.13900,    0.00,    0.00,    0.00,  0.00000,  0.00000,  0.00000,  0.00000,1,   0.00,   1,1.0000
     3,    150,'1 ',   0.00100,   0.00700,   0.00000,    0.00,    0.00,    0.00,  0.00000,  0.00000,  0.00000,  0.00000,1,   0.00,   1,1.0000
     4,     16,'1 ',   0.00200,   0.01900,   1.12700,    0.00,    0.00,    0.00,  0.00000,  0.00000,  0.00000,  0.00000,1,   0.00,   1,1.0000
     5,      9,'1 ',   0.00600,   0.02900,   0.01800,    0.00,    0.00,    0.00,  0.00000,  0.00000,  0.00000,  0.00000,1,   0.00,   1,1.0000
     7,     12,'1 ',   0.00100,   0.00900,   0.07000,    0.00,    0.00,    0.00,  0.00000,  0.00000,  0.00000,  0.00000,1,   0.00,   1,1.0000
     7,    131,'1 ',   0.00100,   0.00700,   0.01400,    0.00,    0.00,    0.00,  0.00000,  0.00000,  0.00000,  0.00000,1,   0.00,   1,1.0000
     8,     11,'1 ',   0.01300,   0.05950,   0.03300,    0.00,    0.00,    0.00,  0.00000,  0.00000,  0.00000,  0.00000,1,   0.00,   1,1.0000
     8,     14,'1 ',   0.01300,   0.04200,   0.08100,    0.00,    0.00,    0.00,  0.00000,  0.00000,  0.00000,  0.00000,1,   0.00,   1,1.0000
     9,     11,'1 ',   0.00600,   0.02700,   0.01300,    0.00,    0.00,    0.00,  0.00000,  0.00000,  0.00000,  0.00000,1,   0.00,   1,1.0000
    11,     13,'1 ',   0.00800,   0.03400,   0.01800,    0.00,    0.00,    0.00,  0.00000,  0.00000,  0.00000,  0.00000,1,   0.00,   1,1.0000
    12,     21,'1 ',   0.00200,   0.01500,   0.11800,    0.00,    0.00,    0.00,  0.00000,  0.00000,  0.00000,  0.00000,1,   0.00,   1,1.0000
    13,     20,'1 ',   0.00600,   0.03400,   0.01600,    0.00,    0.00,    0.00,  0.00000,  0.00000,  0.00000,  0.00000,1,   0.00,   1,1.0000
    14,     15,'1 ',   0.01400,   0.04200,   0.09700,    0.00,    0.00,    0.00,  0.00000,  0.00000,  0.00000,  0.00000,1,   0.00,   1,1.0000
    15,     37,'1 ',   0.06500,   0.24800,   0.12100,    0.00,    0.00,    0.00,  0.00000,  0.00000,  0.00000,  0.00000,1,   0.00,   1,1.0000
    15,     89,'1 ',   0.09900,   0.24800,   0.03500,    0.00,    0.00,    0.00,  0.00000,  0.00000,  0.00000,  0.00000,1,   0.00,   1,1.0000
    15,     90,'1 ',   0.09600,   0.36300,   0.04800,    0.00,    0.00,    0.00,  0.00000,  0.00000,  0.00000,  0.00000,1,   0.00,   1,1.0000
    16,     42,'1 ',   0.00200,   0.02200,   1.28000,    0.00,    0.00,    0.00,  0.00000,  0.00000,  0.00000,  0.00000,1,   0.00,   1,1.0000
    19,     21,'1 ',   0.00200,   0.01800,   0.03600,    0.00,    0.00,    0.00,  0.00000,  0.00000,  0.00000,  0.00000,1,   0.00,   1,1.0000
    19,     87,'1 ',   0.01300,   0.08000,   0.15100,    0.00,    0.00,    0.00,  0.00000,  0.00000,  0.00000,  0.00000,1,   0.00,   1,1.0000
    20,     22,'1 ',   0.01600,   0.03300,   0.01500,    0.00,    0.00,    0.00,  0.00000,  0.00000,  0.00000,  0.00000,1,   0.00,   1,1.0000
    20,     27,'1 ',   0.06900,   0.18600,   0.09800,    0.00,    0.00,    0.00,  0.00000,  0.00000,  0.00000,  0.00000,1,   0.00,   1,1.0000
    21,     24,'1 ',   0.00400,   0.03400,   0.28000,    0.00,    0.00,    0.00,  0.00000,  0.00000,  0.00000,  0.00000,1,   0.00,   1,1.0000
    22,     23,'1 ',   0.05200,   0.11100,   0.05000,    0.00,    0.00,    0.00,  0.00000,  0.00000,  0.00000,  0.00000,1,   0.00,   1,1.0000
    23,     25,'1 ',   0.01900,   0.03900,   0.01800,    0.00,    0.00,    0.00,  0.00000,  0.00000,  0.00000,  0.00000,1,   0.00,   1,1.0000
    24,    319,'1 ',   0.00700,   0.06800,   0.13400,    0.00,    0.00,    0.00,  0.00000,  0.00000,  0.00000,  0.00000,1,   0.00,   1,1.0000
    25,     26,'1 ',   0.03600,   0.07100,   0.03400,    0.00,    0.00,    0.00,  0.00000,  0.00000,  0.00000,  0.00000,1,   0.00,   1,1.0000
    26,     27,'1 ',   0.04500,   0.12000,   0.06500,    0.00,    0.00,    0.00,  0.00000,  0.00000,  0.00000,  0.00000,1,   0.00,   1,1.0000
    26,    320,'1 ',   0.04300,   0.13000,   0.01400,    0.00,    0.00,    0.00,  0.00000,  0.00000,  0.00000,  0.00000,1,   0.00,   1,1.0000
    33,     34,'1 ',   0.00000,   0.06300,   0.00000,    0.00,    0.00,    0.00,  0.00000,  0.00000,  0.00000,  0.00000,1,   0.00,   1,1.0000
    33,     38,'1 ',   0.00250,   0.01200,   0.01300,    0.00,    0.00,    0.00,  0.00000,  0.00000,  0.00000,  0.00000,1,   0.00,   1,1.0000
    33,     40,'1 ',   0.00600,   0.02900,   0.02000,    0.00,    0.00,    0.00,  0.00000,  0.00000,  0.00000,  0.00000,1,   0.00,   1,1.0000
    33,     41,'1 ',   0.00700,   0.04300,   0.02600,    0.00,    0.00,    0.00,  0.00000,  0.00000,  0.00000,  0.00000,1,   0.00,   1,1.0000
    34,     42,'1 ',   0.00100,   0.00800,   0.04200,    0.00,    0.00,    0.00,  0.00000,  0.00000,  0.00000,  0.00000,1,   0.00,   1,1.0000
    35,     72,'1 ',   0.01200,   0.06000,   0.00800,    0.00,    0.00,    0.00,  0.00000,  0.00000,  0.00000,  0.00000,1,   0.00,   1,1.0000
    35,     76,'1 ',   0.00600,   0.01400,   0.00200,    0.00,    0.00,    0.00,  0.00000,  0.00000,  0.00000,  0.00000,1,   0.00,   1,1.0000
    35,     77,'1 ',   0.01000,   0.02900,   0.00300,    0.00,    0.00,    0.00,  0.00000,  0.00000,  0.00000,  0.00000,1,   0.00,   1,1.0000
    36,     88,'1 ',   0.00400,   0.02700,   0.04300,    0.00,    0.00,    0.00,  0.00000,  0.00000,  0.00000,  0.00000,1,   0.00,   1,1.0000
    37,     38,'1 ',   0.00800,   0.04700,   0.00800,    0.00,    0.00,    0.00,  0.00000,  0.00000,  0.00000,  0.00000,1,   0.00,   1,1.0000
    37,     40,'1 ',   0.02200,   0.06400,   0.00700,    0.00,    0.00,    0.00,  0.00000,  0.00000,  0.00000,  0.00000,1,   0.00,   1,1.0000
    37,     41,'1 ',   0.01000,   0.03600,   0.02000,    0.00,    0.00,    0.00,  0.00000,  0.00000,  0.00000,  0.00000,1,   0.00,   1,1.0000
    37,     49,'1 ',   0.01700,   0.08100,   0.04800,    0.00,    0.00,    0.00,  0.00000,  0.00000,  0.00000,  0.00000,1,   0.00,   1,1.0000
    37,     89,'1 ',   0.10200,   0.25400,   0.03300,    0.00,    0.00,    0.00,  0.00000,  0.00000,  0.00000,  0.00000,1,   0.00,   1,1.0000
    37,     90,'1 ',   0.04700,   0.12700,   0.01600,    0.00,    0.00,    0.00,  0.00000,  0.00000,  0.00000,  0.00000,1,   0.00,   1,1.0000
    38,     41,'1 ',   0.00800,   0.03700,   0.02000,    0.00,    0.00,    0.00,  0.00000,  0.00000,  0.00000,  0.00000,1,   0.00,   1,1.0000
    38,     43,'1 ',   0.03200,   0.08700,   0.04000,    0.00,    0.00,    0.00,  0.00000,  0.00000,  0.00000,  0.00000,1,   0.00,   1,1.0000
    39,     42,'1 ',   0.00060,   0.00640,   0.40400,    0.00,    0.00,    0.00,  0.00000,  0.00000,  0.00000,  0.00000,1,   0.00,   1,1.0000
    40,     48,'1 ',   0.02600,   0.15400,   0.02200,    0.00,    0.00,    0.00,  0.00000,  0.00000,  0.00000,  0.00000,1,   0.00,   1,1.0000
    41,     42,'1 ',   0.00000,   0.02900,   0.00000,    0.00,    0.00,    0.00,  0.00000,  0.00000,  0.00000,  0.00000,1,   0.00,   1,1.0000
    41,     49,'1 ',   0.06500,   0.19100,   0.02000,    0.00,    0.00,    0.00,  0.00000,  0.00000,  0.00000,  0.00000,1,   0.00,   1,1.0000
    41,     51,'1 ',   0.03100,   0.08900,   0.03600,    0.00,    0.00,    0.00,  0.00000,  0.00000,  0.00000,  0.00000,1,   0.00,   1,1.0000
    42,     46,'1 ',   0.00200,   0.01400,   0.80600,    0.00,    0.00,    0.00,  0.00000,  0.00000,  0.00000,  0.00000,1,   0.00,   1,1.0000
    43,     44,'1 ',   0.02600,   0.07200,   0.03500,    0.00,    0.00,    0.00,  0.00000,  0.00000,  0.00000,  0.00000,1,   0.00,   1,1.0000
    43,     48,'1 ',   0.09500,   0.26200,   0.03200,    0.00,    0.00,    0.00,  0.00000,  0.00000,  0.00000,  0.00000,1,   0.00,   1,1.0000
    43,     53,'1 ',   0.01300,   0.03900,   0.01600,    0.00,    0.00,    0.00,  0.00000,  0.00000,  0.00000,  0.00000,1,   0.00,   1,1.0000
    44,     47,'1 ',   0.02700,   0.08400,   0.03900,    0.00,    0.00,    0.00,  0.00000,  0.00000,  0.00000,  0.00000,1,   0.00,   1,1.0000
    44,     54,'1 ',   0.02800,   0.08400,   0.03700,    0.00,    0.00,    0.00,  0.00000,  0.00000,  0.00000,  0.00000,1,   0.00,   1,1.0000
    45,     60,'1 ',   0.00700,   0.04100,   0.31200,    0.00,    0.00,    0.00,  0.00000,  0.00000,  0.00000,  0.00000,1,   0.00,   1,1.0000
    45,     74,'1 ',   0.00900,   0.05400,   0.41100,    0.00,    0.00,    0.00,  0.00000,  0.00000,  0.00000,  0.00000,1,   0.00,   1,1.0000
    46,     81,'1 ',   0.00500,   0.04200,   0.69000,    0.00,    0.00,    0.00,  0.00000,  0.00000,  0.00000,  0.00000,1,   0.00,   1,1.0000
    47,     73,'1 ',   0.05200,   0.14500,   0.07300,    0.00,    0.00,    0.00,  0.00000,  0.00000,  0.00000,  0.00000,1,   0.00,   1,1.0000
    47,    113,'1 ',   0.04300,   0.11800,   0.01300,    0.00,    0.00,    0.00,  0.00000,  0.00000,  0.00000,  0.00000,1,   0.00,   1,1.0000
    48,    107,'1 ',   0.02500,   0.06200,   0.00700,    0.00,    0.00,    0.00,  0.00000,  0.00000,  0.00000,  0.00000,1,   0.00,   1,1.0000
    49,     51,'1 ',   0.03100,   0.09400,   0.04300,    0.00,    0.00,    0.00,  0.00000,  0.00000,  0.00000,  0.00000,1,   0.00,   1,1.0000
    51,     52,'1 ',   0.03700,   0.10900,   0.04900,    0.00,    0.00,    0.00,  0.00000,  0.00000,  0.00000,  0.00000,1,   0.00,   1,1.0000
    52,     55,'1 ',   0.02700,   0.08000,   0.03600,    0.00,    0.00,    0.00,  0.00000,  0.00000,  0.00000,  0.00000,1,   0.00,   1,1.0000
    53,     54,'1 ',   0.02500,   0.07300,   0.03500,    0.00,    0.00,    0.00,  0.00000,  0.00000,  0.00000,  0.00000,1,   0.00,   1,1.0000
    54,     55,'1 ',   0.03500,   0.10300,   0.04700,    0.00,    0.00,    0.00,  0.00000,  0.00000,  0.00000,  0.00000,1,   0.00,   1,1.0000
    55,     57,'1 ',   0.06500,   0.16900,   0.08200,    0.00,    0.00,    0.00,  0.00000,  0.00000,  0.00000,  0.00000,1,   0.00,   1,1.0000
    57,     58,'1 ',   0.04600,   0.08000,   0.03600,    0.00,    0.00,    0.00,  0.00000,  0.00000,  0.00000,  0.00000,1,   0.00,   1,1.0000
    57,     63,'1 ',   0.15900,   0.53700,   0.07100,    0.00,    0.00,    0.00,  0.00000,  0.00000,  0.00000,  0.00000,1,   0.00,   1,1.0000
    58,     59,'1 ',   0.00900,   0.02600,   0.00500,    0.00,    0.00,    0.00,  0.00000,  0.00000,  0.00000,  0.00000,1,   0.00,   1,1.0000
    59,     61,'1 ',   0.00200,   0.01300,   0.01500,    0.00,    0.00,    0.00,  0.00000,  0.00000,  0.00000,  0.00000,1,   0.00,   1,1.0000
    60,     62,'1 ',   0.00900,   0.06500,   0.48500,    0.00,    0.00,    0.00,  0.00000,  0.00000,  0.00000,  0.00000,1,   0.00,   1,1.0000
    62,     64,'1 ',   0.01600,   0.10500,   0.20300,    0.00,    0.00,    0.00,  0.00000,  0.00000,  0.00000,  0.00000,1,   0.00,   1,1.0000
...